Version 4
SHEET 1 2972 872
WIRE -528 -304 -560 -304
WIRE -272 -304 -528 -304
WIRE -160 -304 -272 -304
WIRE 416 -304 -160 -304
WIRE 640 -304 416 -304
WIRE 880 -304 640 -304
WIRE 1008 -304 944 -304
WIRE 1136 -304 1072 -304
WIRE 1312 -304 1136 -304
WIRE 880 -256 880 -304
WIRE 944 -256 944 -304
WIRE 416 -240 416 -304
WIRE 416 -240 352 -240
WIRE 480 -240 416 -240
WIRE 1136 -240 1136 -304
WIRE 1312 -240 1312 -304
WIRE 480 -208 480 -240
WIRE 640 -208 640 -304
WIRE 352 -192 352 -240
WIRE 352 -96 352 -128
WIRE 416 -96 352 -96
WIRE 480 -96 480 -128
WIRE 480 -96 416 -96
WIRE 944 -96 944 -176
WIRE 1136 -96 1136 -176
WIRE 1136 -96 944 -96
WIRE 1312 -96 1312 -160
WIRE 1312 -96 1136 -96
WIRE 1392 -96 1312 -96
WIRE 416 -80 416 -96
WIRE 640 -64 640 -128
WIRE 880 -64 880 -176
WIRE 880 -64 640 -64
WIRE 1392 -64 1392 -96
WIRE 1008 -48 944 -48
WIRE 1136 -48 1072 -48
WIRE 1312 -48 1136 -48
WIRE -272 -32 -272 -304
WIRE -560 -16 -560 -304
WIRE -160 0 -160 -304
WIRE -96 0 -160 0
WIRE 208 0 128 0
WIRE 416 0 416 -16
WIRE 416 0 288 0
WIRE 640 0 640 -64
WIRE 640 0 416 0
WIRE 752 0 640 0
WIRE 944 0 944 -48
WIRE 640 16 640 0
WIRE 1136 16 1136 -48
WIRE 1312 16 1312 -48
WIRE 752 32 752 0
WIRE -272 96 -272 48
WIRE -96 96 -272 96
WIRE 592 96 128 96
WIRE -272 160 -272 96
WIRE 944 160 944 80
WIRE 1136 160 1136 80
WIRE 1136 160 944 160
WIRE 1312 160 1312 96
WIRE 1312 160 1136 160
WIRE 1376 160 1312 160
WIRE -96 192 -160 192
WIRE 640 192 640 112
WIRE 640 192 128 192
WIRE 752 192 752 176
WIRE 752 192 640 192
WIRE 1376 192 1376 160
WIRE 640 208 640 192
WIRE -560 304 -560 64
WIRE -368 304 -560 304
WIRE -272 304 -272 240
WIRE -272 304 -368 304
WIRE -160 304 -160 192
WIRE -160 304 -272 304
WIRE 640 304 640 288
WIRE -368 352 -368 304
FLAG 640 304 0
FLAG 1392 -64 0
FLAG -528 -304 IN
FLAG 1312 -304 OUT1
FLAG -368 352 0
FLAG 1376 192 0
FLAG 1312 -48 OUT2
SYMBOL voltage -560 -32 R0
WINDOW 3 -232 83 Left 2
WINDOW 123 0 0 Left 0
WINDOW 39 0 0 Left 0
WINDOW 0 -95 24 Left 2
SYMATTR Value PWL(0 0 100u 24)
SYMATTR InstName VIN
SYMBOL ind2 864 -272 R0
WINDOW 0 1 27 Right 2
WINDOW 3 1 80 Right 2
SYMATTR InstName L1
SYMATTR Value 13µ
SYMATTR Type ind
SYMATTR SpiceLine Rser=10m
SYMBOL ind2 960 -160 R180
WINDOW 0 1 84 Right 2
WINDOW 3 4 34 Right 2
SYMATTR InstName L2
SYMATTR Value 7µ
SYMATTR Type ind
SYMATTR SpiceLine Rser=10m
SYMBOL res 304 16 M270
WINDOW 0 32 56 VTop 2
WINDOW 3 0 56 VBottom 2
SYMATTR InstName R3
SYMATTR Value 118k
SYMBOL res 624 192 R0
SYMATTR InstName R4
SYMATTR Value 6m
SYMBOL LT8306 16 144 R0
SYMATTR InstName U1
SYMBOL NMOS 592 16 R0
WINDOW 3 -116 107 Left 2
SYMATTR Value BSC190N12NS3
SYMATTR InstName Q1
SYMBOL res -288 -48 R0
SYMATTR InstName R1
SYMATTR Value 100k
SYMBOL diode 400 -16 M180
WINDOW 0 4 -62 Left 2
WINDOW 3 -7 -32 Left 2
SYMATTR InstName D3
SYMATTR Value 1N914
SYMBOL cap 1120 -240 R0
WINDOW 123 22 52 Left 2
WINDOW 0 60 33 Left 2
WINDOW 3 -74 27 Left 2
SYMATTR Value2 x4
SYMATTR InstName Co1
SYMATTR Value 220µ
SYMATTR SpiceLine Rser=2m
SYMBOL res -288 144 R0
SYMATTR InstName R2
SYMATTR Value 28k
SYMBOL res 1296 -256 R0
SYMATTR InstName Rload
SYMATTR Value 10
SYMBOL diode 1008 -288 R270
WINDOW 0 32 32 VTop 2
WINDOW 3 0 32 VBottom 2
SYMATTR InstName D1
SYMATTR Value 1N914
SYMBOL cap 1120 16 R0
WINDOW 123 24 52 Left 2
WINDOW 0 59 28 Left 2
WINDOW 3 -69 27 Left 2
SYMATTR Value2 x4
SYMATTR InstName Co2
SYMATTR Value 220µ
SYMATTR SpiceLine Rser=2m
SYMBOL res 1296 0 R0
SYMATTR InstName Rload1
SYMATTR Value 10
SYMBOL diode 1008 -32 R270
WINDOW 0 32 32 VTop 2
WINDOW 3 0 32 VBottom 2
SYMATTR InstName D2
SYMATTR Value 1N914
SYMBOL ind2 960 96 R180
WINDOW 0 1 84 Right 2
WINDOW 3 4 34 Right 2
SYMATTR InstName L3
SYMATTR Value 3µ
SYMATTR Type ind
SYMATTR SpiceLine Rser=10m
SYMBOL res 464 -112 M180
WINDOW 0 50 62 Left 2
WINDOW 3 40 34 Left 2
SYMATTR InstName R
SYMATTR Value 1e5
SYMBOL cap 336 -192 R0
WINDOW 0 40 30 Left 2
WINDOW 3 -62 29 Left 2
SYMATTR InstName C
SYMATTR Value 1e-8
SYMBOL ind2 624 -224 R0
WINDOW 0 76 58 Right 2
WINDOW 3 1 80 Right 2
SYMATTR InstName Llk
SYMATTR Value 1µ
SYMATTR Type ind
SYMATTR SpiceLine Rser=10m
SYMBOL res 736 128 M180
WINDOW 0 47 64 Left 2
WINDOW 3 -26 63 Left 2
SYMATTR InstName Rsnub
SYMATTR Value 10
SYMBOL cap 736 112 R0
WINDOW 0 51 30 Left 2
WINDOW 3 -36 25 Left 2
SYMATTR InstName Csnub
SYMATTR Value 8µ
TEXT 800 -368 Left 2 !K1 L1 L2 L3 0.9992
TEXT 944 312 Left 2 !.tran 0 1 0 1e-3 startup
TEXT 784 -216 Left 2 ;Pri
TEXT 976 -216 Left 2 ;Sec1
TEXT 976 40 Left 2 ;Sec2
